[Format]      =  4.0
[Frequency]   =  112201.84543019671
[Precision]   =  1e-008
[MinAngle]    =  30
[DoSmartMesh] =  1
[Depth]       =  16
[LengthUnits] =  millimeters
[ProblemType] =  planar
[Coordinates] =  cartesian
[ACSolver]    =  0
[PrevType]    =  0
[PrevSoln]    =  ""
[Comment]     =  "Add comments here."
[PointProps]   = 0
[BdryProps]   = 0
[BlockProps]  = 5
  <BeginBlock>
    <BlockName> = "Air"
    <Mu_x> = 1
    <Mu_y> = 1
    <H_c> = 0
    <H_cAngle> = 0
    <J_re> = 0
    <J_im> = 0
    <Sigma> = 0
    <d_lam> = 0
    <Phi_h> = 0
    <Phi_hx> = 0
    <Phi_hy> = 0
    <LamType> = 0
    <LamFill> = 1
    <NStrands> = 0
    <WireD> = 0
    <BHPoints> = 0
  <EndBlock>
  <BeginBlock>
    <BlockName> = "M-15 Steel"
    <Mu_x> = 1
    <Mu_y> = 1
    <H_c> = 0
    <H_cAngle> = 0
    <J_re> = 0
    <J_im> = 0
    <Sigma> = 1.8999999999999999
    <d_lam> = 0.63500000000000001
    <Phi_h> = 0
    <Phi_hx> = 0
    <Phi_hy> = 0
    <LamType> = 0
    <LamFill> = 0.97999999999999998
    <NStrands> = 0
    <WireD> = 0
    <BHPoints> = 47
      0	0
      0.050000000000000003	15.120714
      0.10000000000000001	22.718292000000002
      0.14999999999999999	27.842732999999999
      0.20000000000000001	31.871434000000001
      0.25	35.365043999999997
      0.29999999999999999	38.600588000000002
      0.34999999999999998	41.736201999999999
      0.40000000000000002	44.873978999999999
      0.45000000000000001	48.087806999999998
      0.5	51.437235999999999
      0.55000000000000004	54.975220999999998
      0.59999999999999998	58.752992999999996
      0.65000000000000002	62.823644000000002
      0.69999999999999996	67.245284999999996
      0.75	72.084406000000001
      0.80000000000000004	77.420100000000005
      0.84999999999999998	83.350020999999998
      0.90000000000000002	89.999611999999999
      0.94999999999999996	97.537352999999996
      1	106.20140600000001
      1.05	116.34846400000001
      1.1000000000000001	128.54732899999999
      1.1499999999999999	143.76543100000001
      1.2	163.75416899999999
      1.25	191.86815799999999
      1.3	234.833507
      1.3500000000000001	306.50976900000001
      1.3999999999999999	435.255202
      1.45	674.911968
      1.5	1108.3255690000001
      1.55	1813.085468
      1.6000000000000001	2801.2174209999998
      1.6499999999999999	4053.6531169999998
      1.7	5591.10689
      1.75	7448.318413
      1.8	9708.81567
      1.8500000000000001	12486.931615
      1.8999999999999999	16041.483644
      1.95	21249.420623999998
      2	31313.495878000002
      2.0499999999999998	53589.446877000002
      2.1000000000000001	88477.484601000004
      2.1499999999999999	124329.41054
      2.2000000000000002	159968.5693
      2.25	197751.604272
      2.2999999999999998	234024.75134700001
  <EndBlock>
  <BeginBlock>
    <BlockName> = "Copper"
    <Mu_x> = 1
    <Mu_y> = 1
    <H_c> = 0
    <H_cAngle> = 0
    <J_re> = 0
    <J_im> = 0
    <Sigma> = 58
    <d_lam> = 0
    <Phi_h> = 0
    <Phi_hx> = 0
    <Phi_hy> = 0
    <LamType> = 0
    <LamFill> = 1
    <NStrands> = 0
    <WireD> = 0
    <BHPoints> = 0
  <EndBlock>
  <BeginBlock>
    <BlockName> = "36 AWG"
    <Mu_x> = 1
    <Mu_y> = 1
    <H_c> = 0
    <H_cAngle> = 0
    <J_re> = 0
    <J_im> = 0
    <Sigma> = 58
    <d_lam> = 0
    <Phi_h> = 0
    <Phi_hx> = 0
    <Phi_hy> = 0
    <LamType> = 3
    <LamFill> = 1
    <NStrands> = 1
    <WireD> = 0.12704655216407401
    <BHPoints> = 0
  <EndBlock>
  <BeginBlock>
    <BlockName> = "Pure Iron"
    <Mu_x> = 14872
    <Mu_y> = 14872
    <H_c> = 0
    <H_cAngle> = 0
    <J_re> = 0
    <J_im> = 0
    <Sigma> = 10.44
    <d_lam> = 0
    <Phi_h> = 0
    <Phi_hx> = 0
    <Phi_hy> = 0
    <LamType> = 0
    <LamFill> = 1
    <NStrands> = 0
    <WireD> = 0
    <BHPoints> = 21
      0	0
      0.22706499999999999	13.898400000000001
      0.45412999999999998	27.796700000000001
      0.68119499999999999	42.397399999999998
      0.90825999999999996	61.415700000000001
      1.13533	82.382400000000004
      1.36239	144.66900000000001
      1.58935	897.75999999999999
      1.81236	4581.7399999999998
      2.01004	17736.200000000001
      2.1331600000000002	41339.300000000003
      2.1999900000000001	68321.800000000003
      2.2547899999999998	95685.5
      2.2999299999999998	123355
      2.3425099999999999	151083
      2.3787600000000002	178954
      2.4150100000000001	206825
      2.45126	234696
      2.4874999999999998	262568
      2.5237500000000002	290439
      2.5600000000000001	318310
  <EndBlock>
[CircuitProps]  = 3
  <BeginCircuit>
    <CircuitName> = "A"
    <TotalAmps_re> = 1
    <TotalAmps_im> = 0
    <CircuitType> = 1
  <EndCircuit>
  <BeginCircuit>
    <CircuitName> = "B"
    <TotalAmps_re> = 0.5
    <TotalAmps_im> = 0.86599999999999999
    <CircuitType> = 1
  <EndCircuit>
  <BeginCircuit>
    <CircuitName> = "C"
    <TotalAmps_re> = 0.5
    <TotalAmps_im> = -0.86599999999999999
    <CircuitType> = 1
  <EndCircuit>
[NumPoints] = 77
-0.20000000000000001	0.10000000000000001	0	0
-0.20000000000000001	0.30000000000000004	0	0
0.60000000000000009	0.30000000000000004	0	0
0.60000000000000009	0.10000000000000001	0	0
1.4000000000000001	0.10000000000000001	0	0
1.4000000000000001	0.30000000000000004	0	0
2.2000000000000002	0.30000000000000004	0	0
2.2000000000000002	0.10000000000000001	0	0
3	0.30000000000000004	0	0
3	0.10000000000000001	0	0
3.8000000000000003	0.30000000000000004	0	0
3.8000000000000003	0.10000000000000001	0	0
4.6000000000000005	0.10000000000000001	0	0
4.6000000000000005	0.30000000000000004	0	0
5.4000000000000004	0.30000000000000004	0	0
5.4000000000000004	0.10000000000000001	0	0
6.2000000000000002	0.10000000000000001	0	0
6.2000000000000002	0.30000000000000004	0	0
7	0.30000000000000004	0	0
7	0.10000000000000001	0	0
-0.20000000000000001	-1.5	0	0
7	-1.5	0	0
7	-1.9000000000000001	0	0
-0.20000000000000001	-1.9000000000000001	0	0
-2.7000000000000002	3	0	0
10.100000000000001	3	0	0
10.100000000000001	-3.4000000000000004	0	0
-2.7000000000000002	-3.4000000000000004	0	0
-0.20000000000000001	0.40000000000000002	0	0
7	0.40000000000000002	0	0
7	1.9000000000000001	0	0
-0.20000000000000001	1.9000000000000001	0	0
7.8000000000000007	0.30000000000000004	0	0
7.8000000000000007	0.10000000000000001	0	0
8.5999999999999996	0.10000000000000001	0	0
8.5999999999999996	0.30000000000000004	0	0
9.4000000000000004	0.30000000000000004	0	0
9.4000000000000004	0.10000000000000001	0	0
14.100000000000001	3	0	0
14.100000000000001	-3.4000000000000004	0	0
9.4000000000000004	0.40000000000000002	0	0
9.4000000000000004	1.9000000000000001	0	0
9.4000000000000004	-1.5	0	0
9.4000000000000004	-1.9000000000000001	0	0
-0.20000000000000001	-0.5	0	0
-0.20000000000000001	-0.80000000000000004	0	0
9.4000000000000004	-0.5	0	0
9.4000000000000004	-0.80000000000000004	0	0
10.220000000000001	-1.78	0	0
-0.20000000000000001	-0.40000000000000002	0	0
-0.20000000000000001	-0.20000000000000001	0	0
0.60000000000000009	-0.20000000000000001	0	0
0.60000000000000009	-0.40000000000000002	0	0
1.4000000000000001	-0.20000000000000001	0	0
1.4000000000000001	-0.40000000000000002	0	0
2.2000000000000002	-0.20000000000000001	0	0
2.2000000000000002	-0.40000000000000002	0	0
3	-0.20000000000000001	0	0
3	-0.40000000000000002	0	0
3.8000000000000003	-0.20000000000000001	0	0
3.8000000000000003	-0.40000000000000002	0	0
4.6000000000000005	-0.20000000000000001	0	0
4.6000000000000005	-0.40000000000000002	0	0
5.4000000000000004	-0.40000000000000002	0	0
5.4000000000000004	-0.20000000000000001	0	0
6.2000000000000002	-0.20000000000000001	0	0
6.2000000000000002	-0.40000000000000002	0	0
7	-0.40000000000000002	0	0
7	-0.20000000000000001	0	0
7.8000000000000007	-0.20000000000000001	0	0
7.8000000000000007	-0.40000000000000002	0	0
8.5999999999999996	-0.40000000000000002	0	0
8.5999999999999996	-0.20000000000000001	0	0
9.4000000000000004	-0.20000000000000001	0	0
9.4000000000000004	-0.40000000000000002	0	0
-0.20000000000000001	0.5	0	0
9.4000000000000004	0.5	0	0
[NumSegments] = 99
0	3	-1	0	0	0
3	4	-1	0	0	0
4	7	-1	0	0	0
7	9	-1	0	0	0
9	11	-1	0	0	0
11	10	-1	0	0	0
10	8	-1	0	0	0
8	6	-1	0	0	0
6	5	-1	0	0	0
5	2	-1	0	0	0
2	1	-1	0	0	0
1	0	-1	0	0	0
2	3	-1	0	0	0
5	4	-1	0	0	0
6	7	-1	0	0	0
8	9	-1	0	0	0
11	12	-1	0	0	0
13	12	-1	0	0	0
10	13	-1	0	0	0
13	14	-1	0	0	0
14	17	-1	0	0	0
17	18	-1	0	0	0
18	19	-1	0	0	0
19	16	-1	0	0	0
16	15	-1	0	0	0
15	12	-1	0	0	0
14	15	-1	0	0	0
17	16	-1	0	0	0
20	23	-1	0	0	0
23	22	-1	0	0	0
20	21	-1	0	0	0
24	25	-1	0	0	0
26	27	-1	0	0	0
27	24	-1	0	0	0
31	30	-1	0	0	0
29	28	-1	0	0	0
28	75	-1	0	0	0
18	32	-1	0	0	0
32	33	-1	0	0	0
33	19	-1	0	0	0
33	34	-1	0	0	0
35	34	-1	0	0	0
35	32	-1	0	0	0
35	36	-1	0	0	0
36	37	-1	0	0	0
37	34	-1	0	0	0
26	39	-1	0	0	0
39	38	-1	0	0	0
38	25	-1	0	0	0
30	41	-1	0	0	0
41	76	-1	0	0	0
40	29	-1	0	0	0
21	42	-1	0	0	0
42	43	-1	0	0	0
43	22	-1	0	0	0
44	45	-1	0	0	0
44	46	-1	0	0	0
46	47	-1	0	0	0
47	45	-1	0	0	0
74	73	-1	0	0	0
72	73	-1	0	0	0
72	71	-1	0	0	0
71	74	-1	0	0	0
71	70	-1	0	0	0
70	69	-1	0	0	0
69	72	-1	0	0	0
69	68	-1	0	0	0
68	67	-1	0	0	0
67	70	-1	0	0	0
68	65	-1	0	0	0
65	66	-1	0	0	0
66	67	-1	0	0	0
65	64	-1	0	0	0
64	63	-1	0	0	0
63	66	-1	0	0	0
64	61	-1	0	0	0
61	62	-1	0	0	0
62	63	-1	0	0	0
61	59	-1	0	0	0
59	60	-1	0	0	0
60	62	-1	0	0	0
59	57	-1	0	0	0
58	57	-1	0	0	0
58	60	-1	0	0	0
57	55	-1	0	0	0
56	55	-1	0	0	0
56	58	-1	0	0	0
50	49	-1	0	0	0
50	51	-1	0	0	0
51	52	-1	0	0	0
52	54	-1	0	0	0
54	53	-1	0	0	0
55	53	-1	0	0	0
56	54	-1	0	0	0
53	51	-1	0	0	0
52	49	-1	0	0	0
75	31	-1	0	0	0
76	40	-1	0	0	0
76	75	-1	0	0	0
[NumArcSegments] = 0
[NumHoles] = 0
[NumBlockLabels] = 29
-1.1000000000000001	1.5	1	-1	0	0	0	1	0
1.8	1.1000000000000001	1	-1	0	0	0	1	0
0.30000000000000004	0.20000000000000001	4	-1	1	0	0	3	0
1.1000000000000001	0.20000000000000001	4	-1	2	0	0	3	0
1.9000000000000001	0.20000000000000001	4	-1	3	0	0	3	0
2.9000000000000004	0.20000000000000001	4	-1	1	0	0	-3	0
3.5	0.20000000000000001	4	-1	2	0	0	-3	0
4.2999999999999998	0.20000000000000001	4	-1	3	0	0	-3	0
5.1000000000000005	0.20000000000000001	4	-1	1	0	0	3	0
5.8000000000000007	0.20000000000000001	4	-1	2	0	0	3	0
5.5	-1.7000000000000002	1	-1	0	0	0	1	0
6.6000000000000005	0.20000000000000001	4	-1	3	0	0	3	0
7.5	0.20000000000000001	4	-1	1	0	0	-3	0
8.2000000000000011	0.20000000000000001	4	-1	2	0	0	-3	0
8.9000000000000004	0.20000000000000001	4	-1	3	0	0	-3	0
1.9000000000000001	-0.70000000000000007	2	-1	0	0	0	1	0
0.40000000000000002	-0.30000000000000004	4	-1	1	0	0	3	0
1	-0.30000000000000004	4	-1	2	0	0	3	0
1.7000000000000002	-0.30000000000000004	4	-1	3	0	0	3	0
2.5	-0.30000000000000004	4	-1	1	0	0	-3	0
3.4000000000000004	-0.30000000000000004	4	-1	2	0	0	-3	0
4.9000000000000004	-0.30000000000000004	4	-1	1	0	0	3	0
5.6000000000000005	-0.30000000000000004	4	-1	2	0	0	3	0
4.2999999999999998	-0.30000000000000004	4	-1	3	0	0	-3	0
6.4000000000000004	-0.30000000000000004	4	-1	3	0	0	3	0
7.5	-0.30000000000000004	4	-1	1	0	0	-3	0
8	-0.30000000000000004	4	-1	2	0	0	-3	0
8.9000000000000004	-0.30000000000000004	4	-1	3	0	0	-3	0
0.32000000000000001	0.45000000000000001	3	-1	0	0	1	1	0
